"""
 Glaude, P. A., Melius, C., Pitz, W. J., and Westbrook, C. K.,
 Detailed Chemical Kinetic Reaction Mechanisms for Incineration of Organophosphorus and
 Fluoro-Organophosphorus Compounds, Proceedings of the Combustion Institute, Volume 29, pp. 2469-2476, 2002, UCRL-JC-146563.
 UCRL-WEB-204236
 Review and release date: May 19, 2004.

mecph_v2b: change recommended by Melius: 11/27/01 hopo+h rate const. should be lower than hopo+oh.  tst is tighter for hopo_h
 so a-facter should be lower.  Lower A-factor for hopo+h from 6.8e13 to 1.e13
mecph_v2: add rate const. changes recommended by Melius: 11/23/01
add:
 Tsang86 gives 2.4e13 for ch2oh+oh=ch2o+h2o
reduce rate const. to:
 ch2oh+h=ch2o+h2 of 6.0e12
 removed addition rxns where H adds to the "O" side of the P=O bond
 add c3 rxns so c3h6, ic3h7, ic3h7oh, and ch3coch3 are consumed:
 removed c2h5cho and c2h5co since only source was c3h7o=c2h5cho+h
 removed tc3h6oh, ic3h5oh, c3h5oh, and ch2cch2oh because these all came from c4 species
 removed o2cho (and related ho2cho) since species only reacted with c3h8 and ch2o and would not be
 as important at higher temperatures
 added ch3coch2+ho2=ch3och2o+oh so to be analogous with other c2/c3 chemistry
 c3 rxns from mechanism c4_1c_tol_5d.mech, 6/29/01
mecph_v1: mechanism as when P. Glaude left LLNL, 6/00

 Glaude, P. A., Melius, C., Pitz, W. J., and Westbrook, C. K.,
 Detailed Chemical Kinetic Reaction Mechanisms for Incineration of Organophosphorus and
 Fluoro-Organophosphorus Compounds, Proceedings of the Combustion Institute, Volume 29, pp. 2469-2476, 2002, UCRL-JC-146563.
 UCRL-WEB-204236
 Review and release date: May 19, 2004.

"""

units(length='cm', time='s', quantity='mol', act_energy='cal/mol')

ideal_gas(name='gas',
          elements="H C O N F P Ar",
          species="""h                 h2                o
                     o2                oh                h2o
                     n2                co                hco
                     co2               ch3               ch4
                     ho2               h2o2              ch2o
                     ch3o              c2h6              c2h4
                     c2h5              ch2               ch
                     c2h               c2h2              c2h3
                     ch3oh             ch2oh             ch2co
                     hcco              c2h5oh            pc2h4oh
                     sc2h4oh           ch3co             ch2cho
                     ch3cho            c2h5o             ch3o2
                     c2h5o2            ch3o2h            c2h5o2h
                     c2h3o1,2          ch3co2            c2h4o1,2
                     c2h4o2h           o2c2h4oh          ch3co3
                     ch3co3h           ocho              o2c2h4o2h
                     ch2[s]            hocho             c3h6
                     ic3h7             ic3h7oh           ch3coch3
                     c3h4-a            c3h4-p            nc3h7
                     c3h8              ch3coch2          c2h3co
                     c2h3cho           c3h5o             nc3h7o
                     ic3h7o            c3h5-a            c3h5-s
                     ch3chco           c3h5-t            c3h3
                     c3h2              c3h6oh            hoc3h6o2
                     c3h6o1-2          ch3coch2o         hoch2o
                     ar                f                 hf
                     p                 po                po2
                     po3               hpo               hpo2
                     hopo              hopo2             po[h][oh]
                     po[oh]2           po[oh]3           ch3po
                     ch3po2            ch3opo            ch3opo2
                     po[oh]2me         po[oh]2[ome]      po[oh]2[och2]
                     po[oh]me          po[oh][ome]       po[h]me[ome]
                     po[h][ome]2       po[oh]meo         p[oh]me[ome]
                     pome[ome]         po[ome]2          po[oh]me[ome]
                     po[oh]me[och2]    po[oh][ome][ch2]  pome[ome]o
                     po[oh][ome]2      po[ome]2o         po[oh]ome[och2]
                     pome[ome]2        pome[ome][och2]   po[ch2][ome]2
                     po[ome]3          po[ome]2[och2]    c2h5opo2
                     ch2opo2           po[h][oh][ome]    p[oh]3
                     p[oh]2[ome]       po[oh]2[oet]      po[oh]me[oet]
                     po[oh][oet]2      pome[oet]2        po[oet]3
                     po[oh]me[oipr]    pome[oipr]2       po[oh][oipr]2
                     po[oh]2[oipr]     ipropo2           pomeoipr[otc3h6]
                     pomeoipr[opc3h6]  pomeoipr[ochch3]  po[oh]me[otc3h6]
                     po[oh]me[opc3h6]  pooh[oipr][ch2]   pome[oipr]o
                     po[oipr]2[ch2]    pome[oipr]        po[oh][oipr]
                     pofme[oipr]       pof[oh]me         pof[oh]2
                     pofh[oh]          pof[oh][oipr]     pofmeo
                     pof[oh]           pofme             pof[oipr][ch2]
                     pofme[otc3h6]     pofme[opc3h6]     pofme[ochch3]
                     pof[oh][otc3h6]   pof[oh][opc3h6]   pof[oh]o
                     fpo               fpo2""",
          reactions='all',
          initial_state=state(temperature=300.0, pressure=OneAtm))

#-------------------------------------------------------------------------------
# Species data
#-------------------------------------------------------------------------------

species(name=u'h',
        atoms='H:1',
        thermo=(NASA([300.00, 1000.00],
                     [ 2.50000000E+00,  0.00000000E+00,  0.00000000E+00,
                       0.00000000E+00,  0.00000000E+00,  2.54716300E+04,
                      -4.60117600E-01]),
                NASA([1000.00, 5000.00],
                     [ 2.50000000E+00,  0.00000000E+00,  0.00000000E+00,
                       0.00000000E+00,  0.00000000E+00,  2.54716300E+04,
                      -4.60117600E-01])),
        note=u'120186')

species(name=u'h2',
        atoms='H:2',
        thermo=(NASA([300.00, 1000.00],
                     [ 3.29812400E+00,  8.24944200E-04, -8.14301500E-07,
                      -9.47543400E-11,  4.13487200E-13, -1.01252100E+03,
                      -3.29409400E+00]),
                NASA([1000.00, 5000.00],
                     [ 2.99142300E+00,  7.00064400E-04, -5.63382900E-08,
                      -9.23157800E-12,  1.58275200E-15, -8.35034000E+02,
                      -1.35511000E+00])),
        note=u'121286')

species(name=u'o',
        atoms='O:1',
        thermo=(NASA([300.00, 1000.00],
                     [ 2.94642900E+00, -1.63816600E-03,  2.42103200E-06,
                      -1.60284300E-09,  3.89069600E-13,  2.91476400E+04,
                       2.96399500E+00]),
                NASA([1000.00, 5000.00],
                     [ 2.54206000E+00, -2.75506200E-05, -3.10280300E-09,
                       4.55106700E-12, -4.36805200E-16,  2.92308000E+04,
                       4.92030800E+00])),
        note=u'120186')

species(name=u'o2',
        atoms='O:2',
        thermo=(NASA([300.00, 1000.00],
                     [ 3.21293600E+00,  1.12748600E-03, -5.75615000E-07,
                       1.31387700E-09, -8.76855400E-13, -1.00524900E+03,
                       6.03473800E+00]),
                NASA([1000.00, 5000.00],
                     [ 3.69757800E+00,  6.13519700E-04, -1.25884200E-07,
                       1.77528100E-11, -1.13643500E-15, -1.23393000E+03,
                       3.18916600E+00])),
        note=u'121386')

species(name=u'oh',
        atoms='H:1 O:1',
        thermo=(NASA([300.00, 1357.00],
                     [ 3.43586219E+00,  2.02235804E-04, -1.13546412E-07,
                       2.42445149E-10, -7.43651031E-14,  3.74321252E+03,
                       2.45014127E+00]),
                NASA([1357.00, 5000.00],
                     [ 2.62599754E+00,  1.31992406E-03, -3.59724670E-07,
                       4.25630800E-11, -1.82048016E-15,  4.12085374E+03,
                       7.10667307E+00])),
        note=u'8/12/99therm')

species(name=u'h2o',
        atoms='H:2 O:1',
        thermo=(NASA([300.00, 1000.00],
                     [ 3.38684200E+00,  3.47498200E-03, -6.35469600E-06,
                       6.96858100E-09, -2.50658800E-12, -3.02081100E+04,
                       2.59023300E+00]),
                NASA([1000.00, 5000.00],
                     [ 2.67214600E+00,  3.05629300E-03, -8.73026000E-07,
                       1.20099600E-10, -6.39161800E-15, -2.98992100E+04,
                       6.86281700E+00])),
        note=u'20387')

species(name=u'n2',
        atoms='N:2',
        thermo=(NASA([300.00, 1000.00],
                     [ 3.29867700E+00,  1.40824000E-03, -3.96322200E-06,
                       5.64151500E-09, -2.44485500E-12, -1.02090000E+03,
                       3.95037200E+00]),
                NASA([1000.00, 5000.00],
                     [ 2.92664000E+00,  1.48797700E-03, -5.68476100E-07,
                       1.00970400E-10, -6.75335100E-15, -9.22797700E+02,
                       5.98052800E+00])),
        note=u'121286')

species(name=u'co',
        atoms='C:1 O:1',
        thermo=(NASA([300.00, 1000.00],
                     [ 3.26245200E+00,  1.51194100E-03, -3.88175500E-06,
                       5.58194400E-09, -2.47495100E-12, -1.43105400E+04,
                       4.84889700E+00]),
                NASA([1000.00, 5000.00],
                     [ 3.02507800E+00,  1.44268900E-03, -5.63082800E-07,
                       1.01858100E-10, -6.91095200E-15, -1.42683500E+04,
                       6.10821800E+00])),
        note=u'121286')

species(name=u'hco',
        atoms='H:1 C:1 O:1',
        thermo=(NASA([300.00, 1000.00],
                     [ 2.89833000E+00,  6.19914700E-03, -9.62308400E-06,
                       1.08982500E-08, -4.57488500E-12,  4.15992200E+03,
                       8.98361400E+00]),
                NASA([1000.00, 5000.00],
                     [ 3.55727100E+00,  3.34557300E-03, -1.33500600E-06,
                       2.47057300E-10, -1.71385100E-14,  3.91632400E+03,
                       5.55229900E+00])),
        note=u'121286')

species(name=u'co2',
        atoms='C:1 O:2',
        thermo=(NASA([300.00, 1000.00],
                     [ 2.27572500E+00,  9.92207200E-03, -1.04091100E-05,
                       6.86668700E-09, -2.11728000E-12, -4.83731400E+04,
                       1.01884900E+01]),
                NASA([1000.00, 5000.00],
                     [ 4.45362300E+00,  3.14016900E-03, -1.27841100E-06,
                       2.39399700E-10, -1.66903300E-14, -4.89669600E+04,
                      -9.55395900E-01])),
        note=u'121286')

species(name=u'ch3',
        atoms='H:3 C:1',
        thermo=(NASA([300.00, 1000.00],
                     [ 2.43044300E+00,  1.11241000E-02, -1.68022000E-05,
                       1.62182900E-08, -5.86495300E-12,  1.64237800E+04,
                       6.78979400E+00]),
                NASA([1000.00, 5000.00],
                     [ 2.84405200E+00,  6.13797400E-03, -2.23034500E-06,
                       3.78516100E-10, -2.45215900E-14,  1.64378100E+04,
                       5.45269700E+00])),
        note=u'121286')

species(name=u'ch4',
        atoms='H:4 C:1',
        thermo=(NASA([300.00, 1000.00],
                     [ 7.78741500E-01,  1.74766800E-02, -2.78340900E-05,
                       3.04970800E-08, -1.22393100E-11, -9.82522900E+03,
                       1.37221900E+01]),
                NASA([1000.00, 5000.00],
                     [ 1.68347900E+00,  1.02372400E-02, -3.87512900E-06,
                       6.78558500E-10, -4.50342300E-14, -1.00807900E+04,
                       9.62339500E+00])),
        note=u'121286')

species(name=u'ho2',
        atoms='H:1 O:2',
        thermo=(NASA([300.00, 1390.00],
                     [ 3.18310656E+00,  3.66767950E-03, -9.32385122E-07,
                      -3.25852919E-10,  1.51139912E-13,  8.09181013E+02,
                       8.39371099E+00]),
                NASA([1390.00, 5000.00],
                     [ 4.10547423E+00,  2.38452835E-03, -8.06347989E-07,
                       1.24191723E-10, -7.16400108E-15,  3.98127689E+02,
                       3.12515836E+00])),
        note=u'8/12/99therm')

species(name=u'h2o2',
        atoms='H:2 O:2',
        thermo=(NASA([300.00, 1000.00],
                     [ 3.38875400E+00,  6.56922600E-03, -1.48501300E-07,
                      -4.62580600E-09,  2.47151500E-12, -1.76631500E+04,
                       6.78536300E+00]),
                NASA([1000.00, 5000.00],
                     [ 4.57316700E+00,  4.33613600E-03, -1.47468900E-06,
                       2.34890400E-10, -1.43165400E-14, -1.80069600E+04,
                       5.01137000E-01])),
        note=u'120186')

species(name=u'ch2o',
        atoms='H:2 C:1 O:1',
        thermo=(NASA([300.00, 1000.00],
                     [ 1.65273100E+00,  1.26314400E-02, -1.88816800E-05,
                       2.05003100E-08, -8.41323700E-12, -1.48654000E+04,
                       1.37848200E+01]),
                NASA([1000.00, 5000.00],
                     [ 2.99560600E+00,  6.68132100E-03, -2.62895500E-06,
                       4.73715300E-10, -3.21251700E-14, -1.53203700E+04,
                       6.91257200E+00])),
        note=u'121286')

species(name=u'ch3o',
        atoms='H:3 C:1 O:1',
        thermo=(NASA([300.00, 1000.00],
                     [ 2.10620400E+00,  7.21659500E-03,  5.33847200E-06,
                      -7.37763600E-09,  2.07561100E-12,  9.78601100E+02,
                       1.31521800E+01]),
                NASA([1000.00, 3000.00],
                     [ 3.77080000E+00,  7.87149700E-03, -2.65638400E-06,
                       3.94443100E-10, -2.11261600E-14,  1.27832500E+02,
                       2.92957500E+00])),
        note=u'121686')

species(name=u'c2h6',
        atoms='H:6 C:2',
        thermo=(NASA([300.00, 1000.00],
                     [ 1.46253900E+00,  1.54946700E-02,  5.78050700E-06,
                      -1.25783200E-08,  4.58626700E-12, -1.12391800E+04,
                       1.44322900E+01]),
                NASA([1000.00, 4000.00],
                     [ 4.82593800E+00,  1.38404300E-02, -4.55725900E-06,
                       6.72496700E-10, -3.59816100E-14, -1.27177900E+04,
                      -5.23950700E+00])),
        note=u'121686')

species(name=u'c2h4',
        atoms='H:4 C:2',
        thermo=(NASA([300.00, 1000.00],
                     [-8.61488000E-01,  2.79616300E-02, -3.38867700E-05,
                       2.78515200E-08, -9.73787900E-12,  5.57304600E+03,
                       2.42114900E+01]),
                NASA([1000.00, 5000.00],
                     [ 3.52841900E+00,  1.14851800E-02, -4.41838500E-06,
                       7.84460100E-10, -5.26684800E-14,  4.42828900E+03,
                       2.23038900E+00])),
        note=u'121286')

species(name=u'c2h5',
        atoms='H:5 C:2',
        thermo=(NASA([300.00, 1000.00],
                     [ 2.69070200E+00,  8.71913300E-03,  4.41983900E-06,
                       9.33870300E-10, -3.92777300E-12,  1.28704000E+04,
                       1.21382000E+01]),
                NASA([1000.00, 5000.00],
                     [ 7.19048000E+00,  6.48407700E-03, -6.42806500E-07,
                      -2.34787900E-10,  3.88087700E-14,  1.06745500E+04,
                      -1.47808900E+01])),
        note=u'12387')

species(name=u'ch2',
        atoms='H:2 C:1',
        thermo=(NASA([250.00, 1000.00],
                     [ 3.76223700E+00,  1.15981900E-03,  2.48958500E-07,
                       8.80083600E-10, -7.33243500E-13,  4.53679100E+04,
                       1.71257800E+00]),
                NASA([1000.00, 4000.00],
                     [ 3.63640800E+00,  1.93305700E-03, -1.68701600E-07,
                      -1.00989900E-10,  1.80825600E-14,  4.53413400E+04,
                       2.15656100E+00])),
        note=u'120186')

species(name=u'ch',
        atoms='H:1 C:1',
        thermo=(NASA([300.00, 1000.00],
                     [ 3.20020200E+00,  2.07287600E-03, -5.13443100E-06,
                       5.73389000E-09, -1.95553300E-12,  7.04525900E+04,
                       3.33158800E+00]),
                NASA([1000.00, 5000.00],
                     [ 2.19622300E+00,  2.34038100E-03, -7.05820100E-07,
                       9.00758200E-11, -3.85504000E-15,  7.08672300E+04,
                       9.17837300E+00])),
        note=u'121286')

species(name=u'c2h',
        atoms='H:1 C:2',
        thermo=(NASA([300.00, 1000.00],
                     [ 2.73770400E+00,  8.04844600E-03, -9.24431000E-06,
                       6.52525900E-09, -1.93958000E-12,  6.68381300E+04,
                       7.30022000E+00]),
                NASA([1000.00, 4000.00],
                     [ 3.98636700E+00,  3.14312300E-03, -1.26724300E-06,
                       2.92436300E-10, -2.71632000E-14,  6.65588400E+04,
                       1.19106300E+00])),
        note=u'81193')

species(name=u'c2h2',
        atoms='H:2 C:2',
        thermo=(NASA([300.00, 1000.00],
                     [ 2.01356200E+00,  1.51904500E-02, -1.61631900E-05,
                       9.07899200E-09, -1.91274600E-12,  2.61244400E+04,
                       8.80537800E+00]),
                NASA([1000.00, 5000.00],
                     [ 4.43677000E+00,  5.37603900E-03, -1.91281700E-06,
                       3.28637900E-10, -2.15671000E-14,  2.56676600E+04,
                      -2.80033800E+00])),
        note=u'121386')

species(name=u'c2h3',
        atoms='H:3 C:2',
        thermo=(NASA([300.00, 1000.00],
                     [ 2.45927600E+00,  7.37147600E-03,  2.10987300E-06,
                      -1.32164200E-09, -1.18478400E-12,  3.33522500E+04,
                       1.15562000E+01]),
                NASA([1000.00, 5000.00],
                     [ 5.93346800E+00,  4.01774600E-03, -3.96674000E-07,
                      -1.44126700E-10,  2.37864400E-14,  3.18543500E+04,
                      -8.53031300E+00])),
        note=u'12787')

species(name=u'ch3oh',
        atoms='H:4 C:1 O:1',
        thermo=(NASA([300.00, 1000.00],
                     [ 2.66011500E+00,  7.34150800E-03,  7.17005100E-06,
                      -8.79319400E-09,  2.39057000E-12, -2.53534800E+04,
                       1.12326300E+01]),
                NASA([1000.00, 5000.00],
                     [ 4.02906100E+00,  9.37659300E-03, -3.05025400E-06,
                       4.35879300E-10, -2.22472300E-14, -2.61579100E+04,
                       2.37819600E+00])),
        note=u'121686')

species(name=u'ch2oh',
        atoms='H:3 C:1 O:1',
        thermo=(NASA([250.00, 1000.00],
                     [ 2.86262800E+00,  1.00152700E-02, -5.28543600E-07,
                      -5.13854000E-09,  2.24604100E-12, -3.34967900E+03,
                       1.03979400E+01]),
                NASA([1000.00, 4000.00],
                     [ 6.32752000E+00,  3.60827100E-03, -3.20154700E-07,
                      -1.93875000E-10,  3.50970500E-14, -4.47450900E+03,
                      -8.32936600E+00])),
        note=u'120186')

species(name=u'ch2co',
        atoms='H:2 C:2 O:1',
        thermo=(NASA([300.00, 1000.00],
                     [ 2.97497100E+00,  1.21187100E-02, -2.34504600E-06,
                      -6.46668500E-09,  3.90564900E-12, -7.63263700E+03,
                       8.67355300E+00]),
                NASA([1000.00, 5000.00],
                     [ 6.03881700E+00,  5.80484000E-03, -1.92095400E-06,
                       2.79448500E-10, -1.45886800E-14, -8.58340200E+03,
                      -7.65758100E+00])),
        note=u'121686')

species(name=u'hcco',
        atoms='H:1 C:2 O:1',
        thermo=(NASA([300.00, 1000.00],
                     [ 5.04796500E+00,  4.45347800E-03,  2.26828300E-07,
                      -1.48209500E-09,  2.25074200E-13,  1.96589200E+04,
                       4.81843900E-01]),
                NASA([1000.00, 4000.00],
                     [ 6.75807300E+00,  2.00040000E-03, -2.02760700E-07,
                      -1.04113200E-10,  1.96516500E-14,  1.90151300E+04,
                      -9.07126200E+00])),
        note=u'32387')

species(name=u'c2h5oh',
        atoms='H:6 C:2 O:1',
        thermo=(NASA([300.00, 1391.00],
                     [ 4.23149045E-01,  2.92858167E-02, -1.73845099E-05,
                       5.33639892E-09, -6.74917252E-13, -2.95683054E+04,
                       2.33538763E+01]),
                NASA([1391.00, 5000.00],
                     [ 7.95264841E+00,  1.31574144E-02, -4.43693359E-06,
                       6.82201160E-10, -3.93096335E-14, -3.23602958E+04,
                      -1.76537972E+01])),
        note=u'3/12/95therm')

species(name=u'pc2h4oh',
        atoms='H:5 C:2 O:1',
        thermo=(NASA([300.00, 1391.00],
                     [ 1.17714711E+00,  2.48115685E-02, -1.50299503E-05,
                       4.79006785E-09, -6.40994211E-13, -4.95369043E+03,
                       2.20081586E+01]),
                NASA([1391.00, 5000.00],
                     [ 7.52241939E+00,  1.10492715E-02, -3.72576465E-06,
                       5.72827397E-10, -3.30061759E-14, -7.29333590E+03,
                      -1.24958732E+01])),
        note=u'3/12/95therm')

species(name=u'sc2h4oh',
        atoms='H:5 C:2 O:1',
        thermo=(NASA([300.00, 1553.00],
                     [ 1.83974631E+00,  1.87789371E-02, -4.60544253E-06,
                      -2.13116990E-09,  9.43772653E-13, -6.29595195E+03,
                       2.01446141E+01]),
                NASA([1553.00, 5000.00],
                     [ 7.26631179E+00,  1.09588926E-02, -3.63662803E-06,
                       5.53659830E-10, -3.17012322E-14, -8.64310684E+03,
                      -1.06794104E+01])),
        note=u'3/12/95therm')

species(name=u'ch3co',
        atoms='H:3 C:2 O:1',
        thermo=(NASA([300.00, 1000.00],
                     [ 3.12527800E+00,  9.77822000E-03,  4.52144800E-06,
                      -9.00946200E-09,  3.19371800E-12, -4.10850800E+03,
                       1.12288500E+01]),
                NASA([1000.00, 5000.00],
                     [ 5.61227900E+00,  8.44988600E-03, -2.85414700E-06,
                       4.23837600E-10, -2.26840400E-14, -5.18786300E+03,
                      -3.27494900E+00])),
        note=u'120186')

species(name=u'ch2cho',
        atoms='H:3 C:2 O:1',
        thermo=(NASA([300.00, 1000.00],
                     [ 3.40906200E+00,  1.07385700E-02,  1.89149200E-06,
                      -7.15858300E-09,  2.86738500E-12,  1.52147700E+03,
                       9.55829000E+00]),
                NASA([1000.00, 5000.00],
                     [ 5.97567000E+00,  8.13059100E-03, -2.74362400E-06,
                       4.07030400E-10, -2.17601700E-14,  4.90321800E+02,
                      -5.04525100E+00])),
        note=u'110393')

species(name=u'ch3cho',
        atoms='H:4 C:2 O:1',
        thermo=(NASA([300.00, 1000.00],
                     [ 2.50569500E+00,  1.33699100E-02,  4.67195300E-06,
                      -1.12814000E-08,  4.26356600E-12, -2.12458900E+04,
                       1.33508900E+01]),
                NASA([1000.00, 5000.00],
                     [ 5.86865000E+00,  1.07942400E-02, -3.64553000E-06,
                       5.41291200E-10, -2.89684400E-14, -2.26456900E+04,
                      -6.01294600E+00])),
        note=u'120186')

species(name=u'c2h5o',
        atoms='H:5 C:2 O:1',
        thermo=(NASA([300.00, 1389.00],
                     [ 4.94420708E-01,  2.71774434E-02, -1.65909010E-05,
                       5.15204200E-09, -6.48496915E-13, -3.35252925E+03,
                       2.28079378E+01]),
                NASA([1389.00, 5000.00],
                     [ 7.87339772E+00,  1.13072907E-02, -3.84421421E-06,
                       5.94414105E-10, -3.43894538E-14, -6.07274953E+03,
                      -1.73416790E+01])),
        note=u'3/12/95therm')

species(name=u'ch3o2',
        atoms='H:3 C:1 O:2',
        thermo=(NASA([300.00, 1385.00],
                     [ 4.26146906E+00,  1.00873599E-02, -3.21506184E-06,
                       2.09409267E-10,  4.18339103E-14, -6.84394259E+02,
                       5.16330320E+00]),
                NASA([1385.00, 5000.00],
                     [ 5.95787891E+00,  7.90728626E-03, -2.68246234E-06,
                       4.13891337E-10, -2.39007330E-14, -1.53574838E+03,
                      -4.71963886E+00])),
        note=u'7/13/98therm')

species(name=u'c2h5o2',
        atoms='H:5 C:2 O:2',
        thermo=(NASA([300.00, 1386.00],
                     [ 3.25121167E+00,  2.36765869E-02, -1.18477606E-05,
                       2.79401564E-09, -2.41043601E-13, -5.44533068E+03,
                       1.27953147E+01]),
                NASA([1386.00, 5000.00],
                     [ 9.15255914E+00,  1.24709284E-02, -4.27100650E-06,
                       6.63470012E-10, -3.85024363E-14, -7.82759319E+03,
                      -1.99384891E+01])),
        note=u'7/27/98therm')

species(name=u'ch3o2h',
        atoms='H:4 C:1 O:2',
        thermo=(NASA([300.00, 1390.00],
                     [ 3.23442817E+00,  1.90129767E-02, -1.13386287E-05,
                       3.40306653E-09, -4.11830222E-13, -1.77197926E+04,
                       9.25623949E+00]),
                NASA([1390.00, 5000.00],
                     [ 8.43117091E+00,  8.06817909E-03, -2.77094921E-06,
                       4.31332243E-10, -2.50692146E-14, -1.96678771E+04,
                      -1.91170629E+01])),
        note=u'7/13/98therm')

species(name=u'c2h5o2h',
        atoms='H:6 C:2 O:2',
        thermo=(NASA([300.00, 1389.00],
                     [ 2.55448138E+00,  3.13447282E-02, -1.84312866E-05,
                       5.15917791E-09, -5.28572992E-13, -2.25353676E+04,
                       1.53197322E+01]),
                NASA([1389.00, 5000.00],
                     [ 1.15361794E+01,  1.26680904E-02, -4.36302927E-06,
                       6.80516196E-10, -3.96092541E-14, -2.58990676E+04,
                      -3.37584606E+01])),
        note=u'7/27/98therm')

species(name=u'c2h3o1,2',
        atoms='H:3 C:2 O:1',
        thermo=(NASA([300.00, 1491.00],
                     [ 3.35999844E-01,  3.09570853E-02, -2.52838600E-05,
                       9.42237535E-09, -1.30399273E-12,  7.99950911E+03,
                       2.50825660E+01]),
                NASA([1491.00, 5000.00],
                     [ 1.14373827E+01,  4.23746386E-03, -1.54815052E-06,
                       2.51163559E-10, -1.50252425E-14,  4.35403066E+03,
                      -3.40412712E+01])),
        note=u'2/14/95therm')

species(name=u'ch3co2',
        atoms='H:3 C:2 O:2',
        thermo=(NASA([300.00, 1395.00],
                     [ 1.37440768E+00,  2.49115604E-02, -1.74308894E-05,
                       6.24799508E-09, -9.09516835E-13, -2.72330150E+04,
                       1.74510638E+01]),
                NASA([1395.00, 5000.00],
                     [ 8.54059736E+00,  8.32951214E-03, -2.84722010E-06,
                       4.41927196E-10, -2.56373394E-14, -2.97290678E+04,
                      -2.10778361E+01])),
        note=u'8/9/99therm')

species(name=u'c2h4o1,2',
        atoms='H:4 C:2 O:1',
        thermo=(NASA([300.00, 1423.00],
                     [-9.57966748E-02,  3.06134929E-02, -1.80613231E-05,
                       3.39679503E-09,  1.69156880E-13, -1.91863801E+04,
                       2.65139216E+01]),
                NASA([1423.00, 5000.00],
                     [ 1.17645647E+01,  6.66438159E-03, -2.42227227E-06,
                       3.91638200E-10, -2.33734512E-14, -2.35320082E+04,
                      -3.82691119E+01])),
        note=u'2/14/95therm')

species(name=u'c2h4o2h',
        atoms='H:5 C:2 O:2',
        thermo=(NASA([300.00, 1388.00],
                     [ 3.40977031E+00,  2.65939711E-02, -1.57408161E-05,
                       4.41132564E-09, -4.49209001E-13,  2.05874655E+03,
                       1.35264941E+01]),
                NASA([1388.00, 5000.00],
                     [ 1.11476965E+01,  1.04949968E-02, -3.62326819E-06,
                       5.66061229E-10, -3.29857328E-14, -8.35606734E+02,
                      -2.87480538E+01])),
        note=u'7/27/98therm')

species(name=u'o2c2h4oh',
        atoms='H:5 C:2 O:3',
        thermo=(NASA([300.00, 1392.00],
                     [ 4.11839445E+00,  2.72240632E-02, -1.60824430E-05,
                       5.17033408E-09, -7.31610168E-13, -2.30857785E+04,
                       1.28482112E+01]),
                NASA([1392.00, 5000.00],
                     [ 1.07432659E+01,  1.30957787E-02, -4.45370088E-06,
                       6.88548738E-10, -3.98230113E-14, -2.55911274E+04,
                      -2.33254953E+01])),
        note=u'2/14/95therm')

species(name=u'ch3co3',
        atoms='H:3 C:2 O:3',
        thermo=(NASA([300.00, 1396.00],
                     [ 2.61619505E+00,  2.94830898E-02, -2.23952554E-05,
                       8.56474251E-09, -1.31255496E-12, -1.62923875E+04,
                       1.64911398E+01]),
                NASA([1396.00, 5000.00],
                     [ 1.15641474E+01,  8.02672958E-03, -2.77497463E-06,